cases/ieee59_v32.raw
0,   100.00, 32, 0, 1, 60.00     / PSS(R)E-32.2    MON, DEC 08 2014  18:36
IEEE59 SYSTEM - MEDIUM LOAD  V32 - TUNED BY JCONTO
SNAPSHOT FROM SNC EMS  MON AUG  8 16:37:52 2005
     1,'ABELS-GN    ',  13.8000,2,   1,   1,   1,1.00000,  -5.6522
     2,'ABELSS-B    ', 138.0000,1,   1,   1,   1,0.99642, -11.1862
     3,'ABELS-GN    ',  13.8000,2,   1,   1,   1,1.00000,  -5.6522
     4,'ABELS-GN    ',  13.8000,2,   1,   1,   1,1.00000,  -5.4729
     5,'ABELS-GN    ',  13.8000,2,   1,   1,   1,1.00000,  -5.4729
     6,'ADAMS-GN    ',  13.8000,2,   1,   1,   1,1.00393,  -5.9269
     7,'ADAMSS-B    ', 138.0000,1,   1,   1,   1,0.99626, -11.5092
     8,'ADAMS-GN    ',  13.8000,2,   1,   1,   1,1.00000,  -5.9048
     9,'ADAMS-GN    ',  13.8000,2,   1,   1,   1,1.00000,  -5.7949
    10,'ADAMS-GN    ',  13.8000,2,   1,   1,   1,1.12319,  -6.9331
    11,'ADLER.BS    ', 138.0000,1,   1,   1,   1,0.99803,  -7.2178
    12,'AGRIC.BS    ', 138.0000,1,   1,   1,   1,0.98304, -13.3267
    13,'AIKEN.BS    ', 138.0000,1,   1,   1,   1,0.97324, -15.5028
    14,'ALBER.BS    ', 138.0000,1,   1,   1,   1,0.98528, -16.6091
    15,'ALDER-GN    ',  15.5000,2,   1,   1,   1,1.00000,  -1.1310
    16,'ALDER.BS    ', 138.0000,1,   1,   1,   1,0.98846,  -6.2996
    17,'ALDER-GN    ',  15.5000,2,   1,   1,   1,1.00000,  -1.1310
    18,'ALDER-GN    ',  15.5000,2,   1,   1,   1,1.00000,   0.1644
    19,'ALGER.BS    ', 138.0000,1,   1,   1,   1,0.95466, -13.3077
    20,'ALLUS.BS    ', 138.0000,1,   1,   1,   1,0.99673, -11.5667
    21,'ALLEN.BS    ', 138.0000,1,   1,   1,   1,0.99502, -14.6974
    22,'ANNAS.BS    ', 230.0000,1,   1,   1,   1,0.99110,  -8.7562
    23,'ARCHE.BS    ', 230.0000,1,   1,   1,   1,0.97835,  -6.9974
    24,'ARNES-GN    ',  20.0000,2,   1,   1,   1,1.00374,  -4.4763
    25,'ARNES.BS    ', 230.0000,1,   1,   1,   1,0.99314,  -5.3022
    26,'ARNES-GN    ',  20.0000,2,   1,   1,   1,1.00000,  -4.4733
    27,'ARNES-GN    ',  20.0000,2,   1,   1,   1,1.00000,  -4.9157
    28,'ARNOL.BS    ', 230.0000,1,   1,   1,   1,1.01896,  -7.6032
    29,'ARTHU-GN    ',  13.8000,2,   1,   1,   1,1.02601,  11.2129
    30,'ARTHU-BU    ', 230.0000,1,   1,   1,   1,0.99676,   4.8251
    31,'ARTHU-GN    ',  13.8000,2,   1,   1,   1,1.00000,  11.3797
    32,'ARTHU-GN    ',  13.8000,2,   1,   1,   1,1.00000,  11.3797
    33,'ARTHU-GN    ',  13.8000,2,   1,   1,   1,1.00000,  11.3797
    34,'ARTHU-GN    ',  13.8000,2,   1,   1,   1,1.00000,  11.3797
    35,'ARTHU-GN    ',  18.0000,2,   1,   1,   1,1.00000,  11.4244
    36,'ASSER-GN    ',  18.0000,2,   1,   1,   1,1.00000,   9.3675
    37,'ASSERS-B    ', 230.0000,1,   1,   1,   1,0.98930,   2.8795
    38,'ASTON.BS    ', 230.0000,1,   1,   1,   1,0.99249,   6.7085
    39,'ASTOR-GN    ',  18.0000,2,   1,   1,   1,1.00000,  11.0649
    40,'ASTORS-B    ', 230.0000,1,   1,   1,   1,0.99434,   7.5231
    41,'ATTAR.BS    ', 230.0000,1,   1,   1,   1,0.99097,   2.3666
    42,'ATTIL.BS    ', 230.0000,1,   1,   1,   1,0.99705,   3.0684
    43,'ATTLE-GN    ',  18.0000,2,   1,   1,   1,1.00000,  10.7866
    44,'ATTLES-B    ', 230.0000,1,   1,   1,   1,1.00078,   7.8698
    45,'AUBREBS-    ',  13.8000,2,   1,   1,   1,1.00000,  22.3410
    46,'AUBREBS-    ',  13.8000,2,   1,   1,   1,1.00000,  15.4861
    47,'AUBRES-B    ', 230.0000,1,   1,   1,   1,0.99783,  12.0814
    48,'AUBREBS-    ',  13.8000,2,   1,   1,   1,1.00000,  26.5676
    49,'AUBREBS-    ',  13.8000,2,   1,   1,   1,1.00000,  25.8570
    50,'AUBRE.BS    ', 230.0000,1,   1,   1,   1,1.00435,  16.0535
    51,'AUBREBS-    ',  13.8000,2,   1,   1,   1,1.00000,  20.4917
    52,'AUSTE-GN    ',  18.0000,2,   1,   1,   1,1.00000,   9.1980
    53,'AUSTE.BS    ', 230.0000,1,   1,   1,   1,0.99913,   3.4607
    54,'AUSTE-GN    ',  18.0000,2,   1,   1,   1,1.00000,   9.8159
    55,'AUSTE-GN    ',  24.0000,2,   1,   1,   1,1.00000,   7.2144
    56,'AVERYS-B    ', 230.0000,1,   1,   1,   1,0.98081,   0.2853
    57,'BARTOS-B    ', 230.0000,3,   2,   2,   1,1.00000,   0.0000
    58,'AUBREXFG    ', 230.0000,1,   1,   1,   1,1.01046,  12.0814
    59,'AUBREXFG    ', 230.0000,1,   1,   1,   1,0.97986,  16.0535
0 / END OF BUS DATA, BEGIN LOAD DATA
     1,' 1',1,   1,   1,     0.000,     0.000,     0.000,     0.000,     0.000,     0.000,   1,1
     2,' 2',1,   1,   1,    75.422,    15.550,     0.000,     0.000,     0.000,     0.000,   1,1
     3,' 3',1,   1,   1,     0.000,     0.000,     0.000,     0.000,     0.000,     0.000,   1,1
     4,' 4',1,   1,   1,     0.000,     0.000,     0.000,     0.000,     0.000,     0.000,   1,1
     5,' 5',1,   1,   1,     0.000,     0.000,     0.000,     0.000,     0.000,     0.000,   1,1
     6,' 6',1,   1,   1,     0.000,     0.000,     0.000,     0.000,     0.000,     0.000,   1,1
     7,' 7',1,   1,   1,   139.753,    28.742,     0.000,     0.000,     0.000,     0.000,   1,1
     8,' 8',1,   1,   1,     0.000,     0.000,     0.000,     0.000,     0.000,     0.000,   1,1
     9,' 9',1,   1,   1,     0.000,     0.000,     0.000,     0.000,     0.000,     0.000,   1,1
    10,'10',1,   1,   1,     0.000,     0.000,     0.000,     0.000,     0.000,     0.000,   1,1
    11,'11',1,   1,   1,    57.676,    11.681,     0.000,     0.000,     0.000,     0.000,   1,1
    11,'A ',1,   1,   1,     0.000,     0.900,     0.000,     0.000,     0.000,     0.000,   1,1
    12,'12',1,   1,   1,    55.457,    10.938,     0.000,     0.000,     0.000,     0.000,   1,1
    13,'13',1,   1,   1,   106.478,    21.898,     0.000,     0.000,     0.000,     0.000,   1,1
    14,'14',1,   1,   1,    97.605,    19.511,     0.000,     0.000,     0.000,     0.000,   1,1
    15,'15',1,   1,   1,     0.000,     0.000,     0.000,     0.000,     0.000,     0.000,   1,1
    16,'16',1,   1,   1,    66.549,    13.617,     0.000,     0.000,     0.000,     0.000,   1,1
    17,'17',1,   1,   1,     0.000,     0.000,     0.000,     0.000,     0.000,     0.000,   1,1
    18,'18',1,   1,   1,     0.000,     0.000,     0.000,     0.000,     0.000,     0.000,   1,1
    19,'19',1,   1,   1,    66.549,    13.617,     0.000,     0.000,     0.000,     0.000,   1,1
    19,'B ',1,   1,   1,    95.842,    19.159,    41.075,     8.211,     0.000,     0.000,   1,1
    20,'20',1,   1,   1,   150.844,    30.944,     0.000,     0.000,     0.000,     0.000,   1,1
    21,'21',1,   1,   1,   206.301,    41.999,     0.000,     0.000,     0.000,     0.000,   1,1
    24,'24',1,   1,   1,     0.000,     0.000,     0.000,     0.000,     0.000,     0.000,   1,1
    25,'25',1,   1,   1,   150.844,    30.313,     0.000,     0.000,     0.000,     0.000,   1,1
    26,'26',1,   1,   1,     0.000,     0.000,     0.000,     0.000,     0.000,     0.000,   1,1
    27,'27',1,   1,   1,     0.000,     0.000,     0.000,     0.000,     0.000,     0.000,   1,1
    28,'28',1,   1,   1,   246.231,    49.741,     0.000,     0.000,     0.000,     0.000,   1,1
    29,'29',1,   1,   1,     0.000,     0.000,     0.000,     0.000,     0.000,     0.000,   1,1
    30,'30',1,   1,   1,    77.640,    15.520,     0.000,     0.000,     0.000,     0.000,   1,1
    31,'31',1,   1,   1,     0.000,     0.000,     0.000,     0.000,     0.000,     0.000,   1,1
    32,'32',1,   1,   1,     0.000,     0.000,     0.000,     0.000,     0.000,     0.000,   1,1
    33,'33',1,   1,   1,     0.000,     0.000,     0.000,     0.000,     0.000,     0.000,   1,1
    34,'34',1,   1,   1,     0.000,     0.000,     0.000,     0.000,     0.000,     0.000,   1,1
    35,'35',1,   1,   1,     0.000,     0.000,     0.000,     0.000,     0.000,     0.000,   1,1
    36,'36',1,   1,   1,     0.000,     0.000,     0.000,     0.000,     0.000,     0.000,   1,1
    37,'37',1,   1,   1,   259.541,    52.702,     0.000,     0.000,     0.000,     0.000,   1,1
    39,'39',1,   1,   1,     0.000,     0.000,     0.000,     0.000,     0.000,     0.000,   1,1
    40,'40',1,   1,   1,   141.971,    29.051,     0.000,     0.000,     0.000,     0.000,   1,1
    41,'41',1,   1,   1,    99.823,    20.270,     0.000,     0.000,     0.000,     0.000,   1,1
    42,'42',1,   1,   1,     0.000,     0.000,     0.000,     0.000,     0.000,     0.000,   1,1
    43,'43',1,   1,   1,     0.000,     0.000,     0.000,     0.000,     0.000,     0.000,   1,1
    45,'45',1,   1,   1,     0.000,     0.000,     0.000,     0.000,     0.000,     0.000,   1,1
    46,'46',1,   1,   1,    30.000,    10.000,     0.000,     0.000,     0.000,     0.000,   1,1
    48,'48',1,   1,   1,     0.000,     0.000,     0.000,     0.000,     0.000,     0.000,   1,1
    49,'49',1,   1,   1,     0.000,     0.000,     0.000,     0.000,     0.000,     0.000,   1,1
    51,'51',1,   1,   1,     0.000,     0.000,     0.000,     0.000,     0.000,     0.000,   1,1
    51,'C ',1,   1,   1,     0.000,     0.000,     0.000,     0.000,     0.000,     0.000,   1,1
    52,'52',1,   1,   1,    15.000,     5.000,     0.000,     0.000,     0.000,     0.000,   1,1
    54,'54',1,   1,   1,     0.000,     0.000,     0.000,     0.000,     0.000,     0.000,   1,1
    55,'55',1,   1,   1,     0.000,     0.000,     0.000,     0.000,     0.000,     0.000,   1,1
    57,'57',1,   2,   2,    10.000,     5.000,     0.000,     0.000,     0.000,     0.000,   1,1
0 / END OF LOAD DATA, BEGIN FIXED SHUNT DATA
0 / END OF FIXED SHUNT DATA, BEGIN GENERATOR DATA
     1,'1 ',    17.740,     1.517,    10.000,     0.000,1.00000,     0,   100.000, 0.00000E+0, 2.43000E-1, 0.00000E+0, 0.00000E+0,1.00000,1,  100.0,    20.000,     0.000,   1,1.0000
     3,'3 ',    17.740,     1.517,    10.000,     0.000,1.00000,     0,   100.000, 0.00000E+0, 2.43000E-1, 0.00000E+0, 0.00000E+0,1.00000,1,  100.0,    20.000,     0.000,   1,1.0000
     4,'4 ',    67.910,     5.837,    30.000,   -25.000,1.00000,     0,   100.000, 0.00000E+0, 2.79000E-1, 0.00000E+0, 0.00000E+0,1.00000,1,  100.0,    76.000,     0.000,   1,1.0000
     5,'5 ',    67.910,     5.837,    30.000,   -25.000,1.00000,     0,   100.000, 0.00000E+0, 2.79000E-1, 0.00000E+0, 0.00000E+0,1.00000,1,  100.0,    76.000,     0.000,   1,1.0000
     6,'6 ',    17.740,     0.000,    10.000,     0.000,1.00000,     0,   100.000, 0.00000E+0, 2.43000E-1, 0.00000E+0, 0.00000E+0,1.00000,1,  100.0,    20.000,     0.000,   1,1.0000
     8,'8 ',    17.740,     3.829,    10.000,     0.000,1.00000,     0,   100.000, 0.00000E+0, 2.43000E-1, 0.00000E+0, 0.00000E+0,1.00000,1,  100.0,    20.000,     0.000,   1,1.0000
     9,'9 ',    67.910,     5.949,    30.000,   -25.000,1.00000,     0,   100.000, 0.00000E+0, 2.79000E-1, 0.00000E+0, 0.00000E+0,1.00000,1,  100.0,    76.000,     0.000,   1,1.0000
    10,'10',    67.910,    15.195,    30.000,   -25.000,1.12319,     0,   100.000, 0.00000E+0, 2.79000E-1, 0.00000E+0, 0.00000E+0,1.00000,1,  100.0,    76.000,     0.000,   1,1.0000
    15,'15',    79.830,     2.882,    60.000,     0.000,1.00000,     0,   100.000, 0.00000E+0, 2.00000E-1, 0.00000E+0, 0.00000E+0,1.00000,1,  100.0,   100.000,     0.000,   1,1.0000
    17,'17',    79.830,    25.156,    60.000,     0.000,1.00000,     0,   100.000, 0.00000E+0, 2.00000E-1, 0.00000E+0, 0.00000E+0,1.00000,1,  100.0,   100.000,     0.000,   1,1.0000
    18,'18',    99.760,    27.186,    60.000,     0.000,1.00000,     0,   100.000, 0.00000E+0, 2.00000E-1, 0.00000E+0, 0.00000E+0,1.00000,1,  100.0,   100.000,     0.000,   1,1.0000
    24,'24',    25.370,     0.000,    80.000,     0.000,1.00000,     0,   100.000, 0.00000E+0, 2.00000E-1, 0.00000E+0, 0.00000E+0,1.00000,1,  100.0,   197.000,     0.000,   1,1.0000
    26,'26',    25.370,    31.326,    80.000,     0.000,1.00000,     0,   100.000, 0.00000E+0, 2.00000E-1, 0.00000E+0, 0.00000E+0,1.00000,1,  100.0,   197.000,     0.000,   1,1.0000
    27,'27',    11.830,    31.182,    80.000,     0.000,1.00000,     0,   100.000, 0.00000E+0, 2.00000E-1, 0.00000E+0, 0.00000E+0,1.00000,1,  100.0,   197.000,     0.000,   1,1.0000
    29,'29',    11.830,     0.000,     6.000,     0.000,1.00000,     0,   100.000, 0.00000E+0, 1.76000E-1, 0.00000E+0, 0.00000E+0,1.00000,1,  100.0,    12.000,     0.000,   1,1.0000
    31,'31',    11.830,     4.735,     6.000,     0.000,1.00000,     0,   100.000, 0.00000E+0, 1.76000E-1, 0.00000E+0, 0.00000E+0,1.00000,1,  100.0,    12.000,     0.000,   1,1.0000
    32,'32',    11.830,     4.735,     6.000,     0.000,1.00000,     0,   100.000, 0.00000E+0, 1.76000E-1, 0.00000E+0, 0.00000E+0,1.00000,1,  100.0,    12.000,     0.000,   1,1.0000
    33,'33',    11.830,     4.735,     6.000,     0.000,1.00000,     0,   100.000, 0.00000E+0, 1.76000E-1, 0.00000E+0, 0.00000E+0,1.00000,1,  100.0,    12.000,     0.000,   1,1.0000
    34,'34',    11.830,     4.735,     6.000,     0.000,1.00000,     0,   100.000, 0.00000E+0, 1.76000E-1, 0.00000E+0, 0.00000E+0,1.00000,1,  100.0,    12.000,     0.000,   1,1.0000
    35,'35',   154.830,    61.673,    80.000,   -50.000,1.00000,     0,   160.000, 0.00000E+0, 1.90000E-1, 0.00000E+0, 0.00000E+0,1.00000,1,  100.0,   155.000,     0.000,   1,1.0000
    36,'36',   154.830,     8.821,    80.000,   -50.000,1.00000,     0,   160.000, 0.00000E+0, 1.90000E-1, 0.00000E+0, 0.00000E+0,1.00000,1,  100.0,   155.000,     0.000,   1,1.0000
    39,'39',   190.810,    -9.643,   200.000,   -50.000,1.00000,     0,   410.000, 0.00000E+0, 2.50000E-1, 0.00000E+0, 0.00000E+0,1.00000,1,  100.0,   400.000,     0.000,   1,1.0000
    43,'43',   162.200,    47.605,   200.000,   -50.000,1.00000,     0,   410.000, 0.00000E+0, 2.50000E-1, 0.00000E+0, 0.00000E+0,1.00000,1,  100.0,   400.000,     0.000,   1,1.0000
    45,'45',    49.830,    -0.415,    16.000,   -10.000,1.00000,     0,   100.000, 0.00000E+0, 3.00000E-1, 0.00000E+0, 0.00000E+0,1.00000,1,  100.0,    50.000,     0.000,   1,1.0000
    46,'46',    46.500,     6.899,    16.000,   -10.000,1.00000,     0,   100.000, 0.00000E+0, 3.00000E-1, 0.00000E+0, 0.00000E+0,1.00000,1,  100.0,    50.000,     0.000,   1,1.0000
    48,'48',    49.830,     8.198,    16.000,   -10.000,1.00000,     0,   100.000, 0.00000E+0, 3.00000E-1, 0.00000E+0, 0.00000E+0,1.00000,1,  100.0,    50.000,     0.000,   1,1.0000
    49,'49',    46.500,     7.733,    16.000,   -10.000,1.00000,     0,   100.000, 0.00000E+0, 3.00000E-1, 0.00000E+0, 0.00000E+0,1.00000,1,  100.0,    50.000,     0.000,   1,1.0000
    51,'51',    49.830,    -1.963,    16.000,   -10.000,1.00000,     0,   100.000, 0.00000E+0, 3.00000E-1, 0.00000E+0, 0.00000E+0,1.00000,1,  100.0,    50.000,     0.000,   1,1.0000
    51,'A ',    49.830,    -1.963,    16.000,   -10.000,1.00000,     0,   100.000, 0.00000E+0, 3.00000E-1, 0.00000E+0, 0.00000E+0,1.00000,1,  100.0,    50.000,     0.000,   1,1.0000
    52,'52',   154.830,    13.229,    80.000,   -50.000,1.00000,     0,   160.000, 0.00000E+0, 1.90000E-1, 0.00000E+0, 0.00000E+0,1.00000,1,  100.0,   155.000,     0.000,   1,1.0000
    54,'54',   154.830,     9.818,    80.000,   -50.000,1.00000,     0,   160.000, 0.00000E+0, 1.90000E-1, 0.00000E+0, 0.00000E+0,1.00000,1,  100.0,   155.000,     0.000,   1,1.0000
    55,'55',   207.320,     9.562,   150.000,   -25.000,1.00000,     0,   370.000, 0.00000E+0, 2.20000E-1, 0.00000E+0, 0.00000E+0,1.00000,1,  100.0,   350.000,     0.000,   1,1.0000
    57,'57',    52.612,     2.263,   350.000,  -350.000,1.00000,     0,   550.000, 0.00000E+0, 2.43000E-1, 0.00000E+0, 0.00000E+0,1.00000,1,  100.0,   500.000,    50.000,   1,1.0000
0 / END OF GENERATOR DATA, BEGIN BRANCH DATA
     2,     7,'1 ', 3.00000E-3, 1.40000E-2,   0.46100,  175.00,  193.00,  200.00,  0.00000,  0.00000,  0.00000,  0.00000,1,2,   0.00,   1,1.0000
     2,    11,'1 ', 5.50000E-2, 2.11000E-1,   0.05700,  175.00,  193.00,  200.00,  0.00000,  0.00000,  0.00000,  0.00000,1,2,   0.00,   1,1.0000
     2,    13,'1 ', 2.20000E-2, 8.50000E-2,   0.02300,  175.00,  193.00,  200.00,  0.00000,  0.00000,  0.00000,  0.00000,1,1,   0.00,   1,1.0000
     7,    12,'1 ', 3.30000E-2, 1.27000E-1,   0.03400,  175.00,  193.00,  200.00,  0.00000,  0.00000,  0.00000,  0.00000,1,1,   0.00,   1,1.0000
     7,    14,'1 ', 5.00000E-2, 1.92000E-1,   0.05200,  175.00,  193.00,  200.00,  0.00000,  0.00000,  0.00000,  0.00000,1,1,   0.00,   1,1.0000
    11,    20,'1 ', 3.10000E-2, 1.19000E-1,   0.03200,  175.00,  208.00,  220.00,  0.00000,  0.00000,  0.00000,  0.00000,1,1,   0.00,   1,1.0000
    12,    20,'1 ', 2.70000E-2, 1.04000E-1,   0.02800,  175.00,  208.00,  220.00,  0.00000,  0.00000,  0.00000,  0.00000,1,1,   0.00,   1,1.0000
    13,    21,'1 ', 2.30000E-2, 8.80000E-2,   0.02400,  175.00,  208.00,  220.00,  0.00000,  0.00000,  0.00000,  0.00000,1,1,   0.00,   1,1.0000
    14,    21,'1 ', 1.40000E-2, 6.10000E-2,   2.45900,  175.00,  208.00,  220.00,  0.00000,  0.00000,  0.00000,  0.00000,1,1,   0.00,   1,1.0000
    16,    19,'1 ', 1.60000E-2, 6.10000E-2,   0.01700,  175.00,  208.00,  220.00,  0.00000,  0.00000,  0.00000,  0.00000,1,1,   0.00,   1,1.0000
    19,    20,'1 ', 4.30000E-2, 1.65000E-1,   0.04500,  175.00,  208.00,  220.00,  0.00000,  0.00000,  0.00000,  0.00000,1,1,   0.00,   1,1.0000
    19,    21,'1 ', 4.30000E-2, 1.65000E-1,   0.04500,  175.00,  208.00,  220.00,  0.00000,  0.00000,  0.00000,  0.00000,1,1,   0.00,   1,1.0000
    22,    25,'1 ', 6.00000E-3, 4.80000E-2,   0.10000,  500.00,  600.00,  625.00,  0.00000,  0.00000,  0.00000,  0.00000,1,1,   0.00,   1,1.0000
    22,    28,'1 ', 5.00000E-3, 4.20000E-2,   0.08800,  500.00,  600.00,  625.00,  0.00000,  0.00000,  0.00000,  0.00000,1,1,   0.00,   1,1.0000
    23,    25,'1 ', 6.00000E-3, 4.80000E-2,   0.10000,  500.00,  600.00,  625.00,  0.00000,  0.00000,  0.00000,  0.00000,1,1,   0.00,   1,1.0000
    23,    53,'1 ', 1.20000E-2, 9.70000E-2,   0.00000,  500.00,  600.00,  625.00,  0.00000,  0.20300,  0.00000,  0.10150,1,1,   0.00,   1,1.0000
    25,    53,'1 ', 1.10000E-2, 8.70000E-2,   0.00000,  500.00,  600.00,  625.00,  0.17400,  0.09100,  0.00000,  0.09100,1,1,   0.00,   1,1.0000
    25,    57,'1 ', 1.00000E-2, 7.50000E-2,   0.15800,    0.00,    0.00,    0.00,  0.00000,  0.00000,  0.00000,  0.00000,1,1,   0.00,   1,1.0000
    28,    37,'1 ', 5.00000E-3, 5.90000E-2,   0.08200,  500.00,  600.00,  625.00,  0.00000,  0.00000,  0.00000,  0.00000,1,1,   0.00,   1,1.0000
    30,    37,'1 ', 2.00000E-3, 1.70000E-2,   0.03600,  500.00,  600.00,  625.00,  0.00000,  0.00000,  0.00000,  0.00000,1,1,   0.00,   1,1.0000
    30,    44,'1 ', 6.00000E-3, 4.90000E-2,   0.10300,  500.00,  600.00,  625.00,  0.00000,  0.00000,  0.00000,  0.00000,1,1,   0.00,   1,1.0000
    30,    44,'2 ', 6.00000E-3, 4.90000E-2,   0.10300,  500.00,  600.00,  625.00,  0.00000,  0.00000,  0.00000,  0.00000,1,1,   0.00,   1,1.0000
    30,    56,'1 ', 7.00000E-3, 5.20000E-2,   0.10900,  500.00,  600.00,  625.00,  0.00000,  0.00000,  0.00000,  0.00000,1,1,   0.00,   1,1.0000
    37,    38,'1 ', 3.00000E-3, 2.60000E-2,   0.05500,  500.00,  600.00,  625.00,  0.00000,  0.00000,  0.00000,  0.00000,1,1,   0.00,   1,1.0000
    37,    41,'1 ', 3.00000E-3, 2.30000E-2,   0.04900,  500.00,  600.00,  625.00,  0.00000,  0.00000,  0.00000,  0.00000,1,1,   0.00,   1,1.0000
    38,    40,'1 ', 2.00000E-3, 1.40000E-2,   0.03000,  500.00,  600.00,  625.00,  0.00000,  0.00000,  0.00000,  0.00000,1,1,   0.00,   1,1.0000
    38,    50,'1 ', 1.40000E-2, 1.05000E-1,   0.22100,  500.00,  600.00,  625.00,  0.00000,  0.00000,  0.00000,  0.00000,1,1,   0.00,   1,1.0000
    40,    44,'1 ', 3.00000E-3, 2.60000E-2,   0.05500,  500.00,  600.00,  625.00,  0.00000,  0.00000,  0.00000,  0.00000,1,1,   0.00,   1,1.0000
    40,    44,'2 ', 3.00000E-3, 2.60000E-2,   0.05500,  500.00,  600.00,  625.00,  0.00000,  0.00000,  0.00000,  0.00000,1,1,   0.00,   1,1.0000
    41,    42,'1 ', 5.00000E-3, 4.00000E-2,   0.08300,  500.00,  600.00,  625.00,  0.00000,  0.00000,  0.00000,  0.00000,1,1,   0.00,   1,1.0000
    41,    42,'2 ', 5.00000E-3, 4.00000E-2,   0.08300,  500.00,  600.00,  625.00,  0.00000,  0.00000,  0.00000,  0.00000,1,1,   0.00,   1,1.0000
    42,    53,'1 ', 3.00000E-3, 2.20000E-2,   0.04600,  500.00,  600.00,  625.00,  0.00000,  0.00000,  0.00000,  0.00000,1,1,   0.00,   1,1.0000
    42,    53,'2 ', 3.00000E-3, 2.20000E-2,   0.04600,  500.00,  600.00,  625.00,  0.00000,  0.00000,  0.00000,  0.00000,1,1,   0.00,   1,1.0000
    44,    47,'1 ', 9.00000E-3, 6.80000E-2,   0.14200,  500.00,  600.00,  625.00,  0.00000,  0.00000,  0.00000,  0.00000,1,1,   0.00,   1,1.0000
    47,    50,'1 ', 4.30000E-2, 1.65000E-1,   0.00000,    0.00,    0.00,    0.00,  0.00000,  0.00000,  0.00000,  0.00000,1,1,   0.00,   1,1.0000
    53,    57,'1 ', 1.00000E-2, 7.40000E-2,   0.15500,    0.00,    0.00,    0.00,  0.00000,  0.00000,  0.00000,  0.00000,1,1,   0.00,   1,1.0000
0 / END OF BRANCH DATA, BEGIN TRANSFORMER DATA
     1,     2,     0,'1 ',1,1,1, 0.00000E+0, 0.00000E+0,2,'            ',1,   1,1.0000
 0.00000E+0, 5.41670E-1,   100.00
1.00000,   0.000,   0.000,     0.00,     0.00,     0.00, 1,      2, 1.10000, 0.90000, 1.01250, 0.98750,  17, 0, 0.00000, 0.00000,  0.000
1.00000,   0.000
     2,     3,     0,'1 ',1,1,1, 0.00000E+0, 0.00000E+0,2,'            ',1,   1,1.0000
 0.00000E+0, 5.41670E-1,   100.00
1.00000,   0.000,   0.000,     0.00,     0.00,     0.00, 1,      2, 1.10000, 0.90000, 1.01250, 0.98750,  17, 0, 0.00000, 0.00000,  0.000
1.00000,   0.000
     2,     4,     0,'1 ',1,1,1, 0.00000E+0, 0.00000E+0,2,'            ',1,   1,1.0000
 0.00000E+0, 1.46070E-1,   100.00
1.00000,   0.000,   0.000,     0.00,     0.00,     0.00, 1,      2, 1.10000, 0.90000, 1.01250, 0.98750,  17, 0, 0.00000, 0.00000,  0.000
1.00000,   0.000
     2,     5,     0,'1 ',1,1,1, 0.00000E+0, 0.00000E+0,2,'            ',1,   1,1.0000
 0.00000E+0, 1.46070E-1,   100.00
1.00000,   0.000,   0.000,     0.00,     0.00,     0.00, 1,      2, 1.10000, 0.90000, 1.01250, 0.98750,  17, 0, 0.00000, 0.00000,  0.000
1.00000,   0.000
     6,     7,     0,'1 ',1,1,1, 0.00000E+0, 0.00000E+0,2,'            ',1,   1,1.0000
 0.00000E+0, 5.41670E-1,   100.00
1.01250,   0.000,   0.000,     0.00,     0.00,     0.00, 1,      7, 1.10000, 0.90000, 1.01250, 0.98750,  17, 0, 0.00000, 0.00000,  0.000
1.00000,   0.000
     7,     8,     0,'1 ',1,1,1, 0.00000E+0, 0.00000E+0,2,'            ',1,   1,1.0000
 0.00000E+0, 5.41670E-1,   100.00
1.01250,   0.000,   0.000,     0.00,     0.00,     0.00, 1,      7, 1.10000, 0.90000, 1.01250, 0.98750,  17, 0, 0.00000, 0.00000,  0.000
1.00000,   0.000
     7,     9,     0,'1 ',1,1,1, 0.00000E+0, 0.00000E+0,2,'            ',1,   1,1.0000
 0.00000E+0, 1.46070E-1,   100.00
1.00000,   0.000,   0.000,     0.00,     0.00,     0.00, 1,      7, 1.10000, 0.90000, 1.01250, 0.98750,  17, 0, 0.00000, 0.00000,  0.000
1.00000,   0.000
     7,    10,     0,'1 ',1,1,1, 0.00000E+0, 0.00000E+0,2,'            ',1,   1,1.0000
 0.00000E+0, 1.46070E-1,   100.00
0.90000,   0.000,   0.000,     0.00,     0.00,     0.00, 1,      7, 1.10000, 0.90000, 1.01250, 0.98750,  17, 0, 0.00000, 0.00000,  0.000
1.00000,   0.000
    11,    56,     0,'1 ',1,1,1, 0.00000E+0, 0.00000E+0,1,'            ',1,   1,1.0000
 2.00000E-3, 8.40000E-2,   100.00
1.02032,   0.000,   0.000,   400.00,   510.00,   600.00, 1,     11, 1.16068, 0.91588, 1.01250, 0.98750,  19, 0, 0.00000, 0.00000,  0.000
1.00000,   0.000
    15,    16,     0,'1 ',1,1,1, 0.00000E+0, 0.00000E+0,2,'            ',1,   1,1.0000
 0.00000E+0, 1.10170E-1,   100.00
1.01250,   0.000,   0.000,     0.00,     0.00,     0.00, 1,     16, 1.10000, 0.90000, 1.01250, 0.98750,  17, 0, 0.00000, 0.00000,  0.000
1.00000,   0.000
    16,    17,     0,'1 ',1,1,1, 0.00000E+0, 0.00000E+0,2,'            ',1,   1,1.0000
 0.00000E+0, 1.10170E-1,   100.00
1.01250,   0.000,   0.000,     0.00,     0.00,     0.00, 1,     16, 1.10000, 0.90000, 1.01250, 0.98750,  17, 0, 0.00000, 0.00000,  0.000
1.00000,   0.000
    16,    18,     0,'1 ',1,1,1, 0.00000E+0, 0.00000E+0,2,'            ',1,   1,1.0000
 0.00000E+0, 1.10170E-1,   100.00
1.01250,   0.000,   0.000,     0.00,     0.00,     0.00, 1,     16, 1.10000, 0.90000, 1.01250, 0.98750,  17, 0, 0.00000, 0.00000,  0.000
1.00000,   0.000
    20,    22,     0,'1 ',1,1,1, 0.00000E+0, 0.00000E+0,1,'            ',1,   1,1.0000
 2.00000E-3, 8.40000E-2,   100.00
1.04800,   0.000,   0.000,   400.00,   510.00,   600.00, 1,     20, 1.16068, 0.91588, 1.01250, 0.98750,  19, 0, 0.00000, 0.00000,  0.000
1.00000,   0.000
    20,    23,     0,'1 ',1,1,1, 0.00000E+0, 0.00000E+0,1,'            ',1,   1,1.0000
 2.00000E-3, 8.40000E-2,   100.00
1.04800,   0.000,   0.000,   400.00,   510.00,   600.00, 1,     20, 1.16068, 0.91588, 1.01250, 0.98750,  19, 0, 0.00000, 0.00000,  0.000
1.00000,   0.000
    21,    22,     0,'1 ',1,1,1, 0.00000E+0, 0.00000E+0,1,'            ',1,   1,1.0000
 2.00000E-3, 8.40000E-2,   100.00
1.00612,   0.000,   0.000,   400.00,   510.00,   600.00, 1,     21, 1.16068, 0.91588, 1.01250, 0.98750,  19, 0, 0.00000, 0.00000,  0.000
1.00000,   0.000
    21,    23,     0,'1 ',1,1,1, 0.00000E+0, 0.00000E+0,1,'            ',1,   1,1.0000
 2.00000E-3, 8.40000E-2,   100.00
1.00612,   0.000,   0.000,   400.00,   510.00,   600.00, 1,     21, 1.16068, 0.91588, 1.01250, 0.98750,  19, 0, 0.00000, 0.00000,  0.000
1.00000,   0.000
    24,    25,     0,'1 ',1,1,1, 0.00000E+0, 0.00000E+0,2,'            ',1,   1,1.0000
 0.00000E+0, 5.60300E-2,   100.00
1.01078,   0.000,   0.000,     0.00,     0.00,     0.00, 1,     25, 1.09828, 0.89828, 1.01250, 0.98750,  17, 0, 0.00000, 0.00000,  0.000
1.00000,   0.000
    25,    26,     0,'1 ',1,1,1, 0.00000E+0, 0.00000E+0,2,'            ',1,   1,1.0000
 0.00000E+0, 5.60300E-2,   100.00
1.01078,   0.000,   0.000,     0.00,     0.00,     0.00, 1,     25, 1.09828, 0.89828, 1.01250, 0.98750,  17, 0, 0.00000, 0.00000,  0.000
1.00000,   0.000
    25,    27,     0,'1 ',1,1,1, 0.00000E+0, 0.00000E+0,2,'            ',1,   1,1.0000
 0.00000E+0, 5.60300E-2,   100.00
1.01078,   0.000,   0.000,     0.00,     0.00,     0.00, 1,     25, 1.09828, 0.89828, 1.01250, 0.98750,  17, 0, 0.00000, 0.00000,  0.000
1.00000,   0.000
    29,    30,     0,'1 ',1,1,1, 0.00000E+0, 0.00000E+0,2,'            ',1,   1,1.0000
 0.00000E+0, 9.28570E-1,   100.00
1.03578,   0.000,   0.000,     0.00,     0.00,     0.00, 1,     30, 1.09828, 0.89828, 1.01250, 0.98750,  17, 0, 0.00000, 0.00000,  0.000
1.00000,   0.000
    30,    31,     0,'1 ',1,1,1, 0.00000E+0, 0.00000E+0,2,'            ',1,   1,1.0000
 0.00000E+0, 9.28570E-1,   100.00
1.03578,   0.000,   0.000,     0.00,     0.00,     0.00, 1,     30, 1.09828, 0.89828, 1.01250, 0.98750,  17, 0, 0.00000, 0.00000,  0.000
1.00000,   0.000
    30,    32,     0,'1 ',1,1,1, 0.00000E+0, 0.00000E+0,2,'            ',1,   1,1.0000
 0.00000E+0, 9.28570E-1,   100.00
1.03578,   0.000,   0.000,     0.00,     0.00,     0.00, 1,     30, 1.09828, 0.89828, 1.01250, 0.98750,  17, 0, 0.00000, 0.00000,  0.000
1.00000,   0.000
    30,    33,     0,'1 ',1,1,1, 0.00000E+0, 0.00000E+0,2,'            ',1,   1,1.0000
 0.00000E+0, 9.28570E-1,   100.00
1.03578,   0.000,   0.000,     0.00,     0.00,     0.00, 1,     30, 1.09828, 0.89828, 1.01250, 0.98750,  17, 0, 0.00000, 0.00000,  0.000
1.00000,   0.000
    30,    34,     0,'1 ',1,1,1, 0.00000E+0, 0.00000E+0,2,'            ',1,   1,1.0000
 0.00000E+0, 9.28570E-1,   100.00
1.03578,   0.000,   0.000,     0.00,     0.00,     0.00, 1,     30, 1.09828, 0.89828, 1.01250, 0.98750,  17, 0, 0.00000, 0.00000,  0.000
1.00000,   0.000
    30,    35,     0,'1 ',1,1,1, 0.00000E+0, 0.00000E+0,2,'            ',1,   1,1.0000
 0.00000E+0, 7.14300E-2,   100.00
1.03578,   0.000,   0.000,     0.00,     0.00,     0.00, 1,     30, 1.09828, 0.89828, 1.01250, 0.98750,  17, 0, 0.00000, 0.00000,  0.000
1.00000,   0.000
    36,    37,     0,'1 ',1,1,1, 0.00000E+0, 0.00000E+0,2,'            ',1,   1,1.0000
 0.00000E+0, 7.14300E-2,   100.00
1.01078,   0.000,   0.000,     0.00,     0.00,     0.00, 1,     37, 1.09828, 0.89828, 1.01250, 0.98750,  17, 0, 0.00000, 0.00000,  0.000
1.00000,   0.000
    39,    40,     0,'1 ',1,1,1, 0.00000E+0, 0.00000E+0,2,'            ',1,   1,1.0000
 0.00000E+0, 3.18500E-2,   100.00
1.01078,   0.000,   0.000,     0.00,     0.00,     0.00, 1,     40, 1.09828, 0.89828, 1.01250, 0.98750,  17, 0, 0.00000, 0.00000,  0.000
1.00000,   0.000
    43,    44,     0,'1 ',1,1,1, 0.00000E+0, 0.00000E+0,2,'            ',1,   1,1.0000
 0.00000E+0, 3.18500E-2,   100.00
0.98578,   0.000,   0.000,     0.00,     0.00,     0.00, 1,     44, 1.09828, 0.89828, 1.01250, 0.98750,  17, 0, 0.00000, 0.00000,  0.000
1.00000,   0.000
    47,    45,     0,'1 ',1,1,1, 0.00000E+0, 0.00000E+0,2,'            ',1,   1,1.0000
 1.40300E-2, 3.61130E-1,   100.00
0.98730,   0.000,   0.000,     0.00,     0.00,     0.00, 0,      0, 1.10000, 0.90000, 1.10000, 0.90000, 999, 0, 0.00000, 0.00000,  0.000
1.00000,   0.000
    47,    46,     0,'1 ',1,1,1, 0.00000E+0, 0.00000E+0,2,'            ',1,   1,1.0000
 1.40300E-2, 3.61130E-1,   100.00
0.98730,   0.000,   0.000,     0.00,     0.00,     0.00, 0,      0, 1.10000, 0.90000, 1.10000, 0.90000, 999, 0, 0.00000, 0.00000,  0.000
1.00000,   0.000
    47,    58,     0,'1 ',1,1,1, 0.00000E+0, 0.00000E+0,2,'            ',1,   1,1.0000
 9.70000E-4, 3.04400E-2,   100.00
0.98750,   0.000,   0.000,     0.00,     0.00,     0.00, 1,     47, 1.15000, 0.95000, 1.01250, 0.98750,  17, 0, 0.00000, 0.00000,  0.000
1.00000,   0.000
    50,    48,     0,'1 ',1,1,1, 0.00000E+0, 0.00000E+0,2,'            ',1,   1,1.0000
 1.40300E-2, 3.61130E-1,   100.00
1.02500,   0.000,   0.000,     0.00,     0.00,     0.00, 0,      0, 1.10000, 0.90000, 1.10000, 0.90000, 999, 0, 0.00000, 0.00000,  0.000
1.00000,   0.000
    50,    49,     0,'1 ',1,1,1, 0.00000E+0, 0.00000E+0,2,'            ',1,   1,1.0000
 1.40300E-2, 3.61130E-1,   100.00
1.02500,   0.000,   0.000,     0.00,     0.00,     0.00, 0,      0, 1.10000, 0.90000, 1.10000, 0.90000, 999, 0, 0.00000, 0.00000,  0.000
1.00000,   0.000
    50,    51,     0,'1 ',1,1,1, 0.00000E+0, 0.00000E+0,2,'            ',1,   1,1.0000
 0.00000E+0, 7.81200E-2,   100.00
0.99828,   0.000,   0.000,     0.00,     0.00,     0.00, 1,     50, 1.09828, 0.89828, 1.01250, 0.98750,  17, 0, 0.00000, 0.00000,  0.000
1.00000,   0.000
    50,    59,     0,'1 ',1,1,1, 0.00000E+0, 0.00000E+0,2,'            ',1,   1,1.0000
 9.70000E-4, 3.04400E-2,   100.00
1.02500,   0.000,   0.000,     0.00,     0.00,     0.00, 1,     50, 1.15000, 0.95000, 1.01250, 0.98750,  17, 0, 0.00000, 0.00000,  0.000
1.00000,   0.000
    52,    53,     0,'1 ',1,1,1, 0.00000E+0, 0.00000E+0,2,'            ',1,   1,1.0000
 0.00000E+0, 7.14300E-2,   100.00
1.00000,   0.000,   0.000,     0.00,     0.00,     0.00, 1,     53, 1.15000, 0.95000, 1.01250, 0.98750,  17, 0, 0.00000, 0.00000,  0.000
1.00000,   0.000
    53,    54,     0,'1 ',1,1,1, 0.00000E+0, 0.00000E+0,2,'            ',1,   1,1.0000
 0.00000E+0, 7.14300E-2,   100.00
1.00000,   0.000,   0.000,     0.00,     0.00,     0.00, 1,     53, 1.15000, 0.95000, 1.01250, 0.98750,  17, 0, 0.00000, 0.00000,  0.000
1.00000,   0.000
    53,    55,     0,'1 ',1,1,1, 0.00000E+0, 0.00000E+0,2,'            ',1,   1,1.0000
 0.00000E+0, 3.15500E-2,   100.00
1.00000,   0.000,   0.000,     0.00,     0.00,     0.00, 1,     53, 1.15000, 0.95000, 1.01250, 0.98750,  17, 0, 0.00000, 0.00000,  0.000
1.00000,   0.000
0 / END OF TRANSFORMER DATA, BEGIN AREA DATA
   1,     0,     0.000,     5.000,'NTC_AREA    '
   2,     0,     0.000,     5.000,'EXTERNAL    '
0 / END OF AREA DATA, BEGIN TWO-TERMINAL DC DATA
0 / END OF TWO-TERMINAL DC DATA, BEGIN VSC DC LINE DATA
0 / END OF VSC DC LINE DATA, BEGIN IMPEDANCE CORRECTION DATA
0 / END OF IMPEDANCE CORRECTION DATA, BEGIN MULTI-TERMINAL DC DATA
0 / END OF MULTI-TERMINAL DC DATA, BEGIN MULTI-SECTION LINE DATA
0 / END OF MULTI-SECTION LINE DATA, BEGIN ZONE DATA
   1,'ION.MAIN    '
   2,'EXTERNAL    '
0 / END OF ZONE DATA, BEGIN INTER-AREA TRANSFER DATA
0 / END OF INTER-AREA TRANSFER DATA, BEGIN OWNER DATA
0 / END OF OWNER DATA, BEGIN FACTS DEVICE DATA
0 / END OF FACTS DEVICE DATA, BEGIN SWITCHED SHUNT DATA
    14,1,0,1,1.02000,0.98000,     0,  100.0,'            ', -100.00, 1, -100.00
    28,2,0,1,1.04000,1.04000,     0,  100.0,'            ',  200.00, 1,  -50.00, 1,  200.00
0 / END OF SWITCHED SHUNT DATA, BEGIN GNE DATA
0 / END OF GNE DATA
Q
